6

C          0.0000000       0.6676690    0.0000000
C          0.0000000      -0.6676690    0.0000000
H          0.9287200       1.2408560    0.0000000
H         -0.9287200       1.2408560    0.0000000
H         -0.9287200      -1.2408560    0.0000000
H          0.9287200      -1.2408560    0.0000000
