13

O            2.5032951000       0.0184294300       0.0413292100
C            1.1303877300       0.0093712000       0.0048092200
C            0.4231806300       1.2120715400       0.0534829600
C           -0.9683182400       1.2029759500      -0.0240138400
C           -1.6577837600      -0.0029850000      -0.1520961400
C           -0.9474329900      -1.2022693500      -0.2062671600
C            0.4442277200      -1.1989189200      -0.1290771400
H            2.7937631000      -0.0420078500       0.9582922000
H            0.9833812200       2.1439365800       0.1424090800
H           -1.5174320700       2.1452316000       0.0127800900
H           -2.7466629100      -0.0076855600      -0.2144254800
H           -1.4799101400      -2.1487692800      -0.3127229700
H            1.0205566600      -2.1237195000      -0.1807420600
