6

O      0.2195632713   -1.3186598949    0.3330810992
H     -0.5228109939   -0.7567006507    0.0601132301
H      0.4092392297   -1.8238917662   -0.4676255573
O     -0.2193799395    1.3193541426   -0.3331573520
H     -0.4082669189    1.8243497095    0.4678866292
H      0.5216553514    0.7555484597   -0.0602980491
